Infrared Spectrum: Silicone oil
Formula: [ - Si ( C H 3 )2 O -] n
CAS: 63148-62-9
State: liquid
Instrument: Bruker Tensor 27 FTIR
Resolution: 0.4821395
Origin: Pacific Northwest National Laboratory Under IARPA Contract
1/cm	dispersion index
7797.62	1.3907
7778.82	1.39071
7760.02	1.39071
7741.21	1.3907
7722.41	1.3907
7703.61	1.39069
7684.8	1.39069
7666	1.39068
7647.2	1.39068
7628.39	1.39067
7609.59	1.39066
7590.79	1.39066
7571.98	1.39065
7553.18	1.39064
7534.38	1.39063
7515.57	1.39063
7496.77	1.39062
7477.97	1.39061
7459.16	1.39061
7440.36	1.3906
7421.55	1.39059
7402.75	1.39058
7383.95	1.39057
7365.14	1.39057
7346.34	1.39056
7327.54	1.39055
7308.73	1.39054
7289.93	1.39054
7271.13	1.39053
7252.32	1.39052
7233.52	1.39051
7214.72	1.39051
7195.91	1.3905
7177.11	1.39049
7158.31	1.39048
7139.5	1.39048
7120.7	1.39047
7101.9	1.39047
7083.09	1.39046
7064.29	1.39045
7045.49	1.39044
7026.68	1.39043
7007.88	1.39042
6989.08	1.39042
6970.27	1.39041
6951.47	1.3904
6932.67	1.39039
6913.86	1.39038
6895.06	1.39037
6876.25	1.39036
6857.45	1.39035
6838.65	1.39034
6819.84	1.39033
6801.04	1.39032
6782.24	1.39031
6763.43	1.3903
6744.63	1.39029
6725.83	1.39028
6707.02	1.39027
6688.22	1.39026
6669.42	1.39025
6650.61	1.39024
6631.81	1.39023
6613.01	1.39022
6594.2	1.39021
6575.4	1.3902
6556.6	1.39019
6537.79	1.39018
6518.99	1.39017
6500.19	1.39015
6481.38	1.39014
6462.58	1.39013
6443.78	1.39012
6424.97	1.39011
6406.17	1.3901
6387.37	1.39009
6368.56	1.39007
6349.76	1.39006
6330.96	1.39005
6312.15	1.39003
6293.35	1.39002
6274.54	1.39001
6255.74	1.38999
6236.94	1.38998
6218.13	1.38997
6199.33	1.38995
6180.53	1.38994
6161.72	1.38992
6142.92	1.38991
6124.12	1.38989
6105.31	1.38988
6086.51	1.38986
6067.71	1.38985
6048.9	1.38983
6030.1	1.38982
6011.3	1.3898
5992.49	1.38978
5973.69	1.38975
5954.89	1.38973
5936.08	1.38969
5917.28	1.38971
5898.48	1.38973
5879.67	1.38969
5860.87	1.38975
5842.07	1.38972
5823.26	1.38968
5804.46	1.38964
5785.66	1.38961
5766.85	1.3896
5748.05	1.38959
5729.25	1.38961
5710.44	1.38963
5691.64	1.38962
5672.83	1.38959
5654.03	1.38956
5635.23	1.38954
5616.42	1.38951
5597.62	1.38951
5578.82	1.38949
5560.01	1.38947
5541.21	1.38944
5522.41	1.38942
5503.6	1.38939
5484.8	1.38937
5466	1.38934
5447.19	1.38933
5428.39	1.38932
5409.59	1.38929
5390.78	1.38929
5371.98	1.38926
5353.18	1.38924
5334.37	1.38921
5315.57	1.38919
5296.77	1.38916
5277.96	1.38914
5259.16	1.38911
5240.36	1.38909
5221.55	1.38907
5202.75	1.38904
5183.95	1.38902
5165.14	1.38899
5146.34	1.38897
5127.53	1.38894
5108.73	1.38891
5089.93	1.38889
5071.12	1.38887
5052.32	1.38884
5033.52	1.38881
5014.71	1.38879
4995.91	1.38876
4977.11	1.38873
4958.3	1.3887
4939.5	1.38867
4920.7	1.38864
4901.89	1.38861
4883.09	1.38858
4864.29	1.38855
4845.48	1.38852
4826.68	1.38848
4807.88	1.38845
4789.07	1.38841
4770.27	1.38838
4751.47	1.38834
4732.66	1.38831
4713.86	1.38827
4695.06	1.38823
4676.25	1.38819
4657.45	1.38815
4638.65	1.38811
4619.84	1.38806
4601.04	1.38802
4582.24	1.38797
4563.43	1.38793
4544.63	1.38788
4525.82	1.38783
4507.02	1.38779
4488.22	1.38774
4469.41	1.38768
4450.61	1.38762
4431.81	1.38755
4413	1.38747
4394.2	1.38741
4375.4	1.38731
4356.59	1.38766
4337.79	1.3879
4318.99	1.38774
4300.18	1.38761
4281.38	1.38749
4262.58	1.38737
4243.77	1.38723
4224.97	1.38715
4206.17	1.38749
4187.36	1.38732
4168.56	1.3872
4149.76	1.38723
4130.95	1.38713
4112.15	1.38702
4093.35	1.38691
4074.54	1.38684
4055.74	1.38684
4036.94	1.38687
4018.13	1.38681
3999.33	1.38674
3980.53	1.38666
3961.72	1.38658
3942.92	1.38648
3924.11	1.38638
3905.31	1.38627
3886.51	1.38617
3867.7	1.38603
3848.9	1.38588
3830.1	1.38583
3811.29	1.38569
3792.49	1.38548
3773.69	1.38556
3754.88	1.38577
3736.08	1.38568
3717.28	1.38563
3698.47	1.38587
3679.67	1.38593
3660.87	1.38564
3642.06	1.38567
3623.26	1.38567
3604.46	1.38553
3585.65	1.38552
3566.85	1.38544
3548.05	1.38526
3529.24	1.3851
3510.44	1.38496
3491.64	1.3848
3472.83	1.38464
3454.03	1.38449
3435.23	1.38432
3416.42	1.38414
3397.62	1.38395
3378.81	1.38376
3360.01	1.38357
3341.21	1.3834
3322.4	1.38321
3303.6	1.383
3284.8	1.38277
3265.99	1.38252
3247.19	1.38225
3228.39	1.38197
3209.58	1.38167
3190.78	1.38133
3171.98	1.38092
3153.17	1.38048
3134.37	1.38001
3115.57	1.37968
3096.76	1.3793
3077.96	1.37862
3059.16	1.37773
3040.35	1.37644
3021.55	1.37412
3002.75	1.36964
2983.94	1.3585
2965.14	1.3667
2946.34	1.408
2927.53	1.39447
2908.73	1.38939
2889.93	1.39267
2871.12	1.39021
2852.32	1.38855
2833.52	1.38761
2814.71	1.38687
2795.91	1.38671
2777.1	1.38653
2758.3	1.38572
2739.5	1.3851
2720.69	1.38454
2701.89	1.38406
2683.09	1.38357
2664.28	1.38332
2645.48	1.38324
2626.68	1.38282
2607.87	1.38243
2589.07	1.38205
2570.27	1.38166
2551.46	1.38132
2532.66	1.38098
2513.86	1.38056
2495.05	1.38065
2476.25	1.38028
2457.45	1.37988
2438.64	1.3795
2419.84	1.37919
2401.04	1.37887
2382.23	1.37848
2363.43	1.37811
2344.63	1.37775
2325.82	1.37736
2307.02	1.377
2288.22	1.37665
2269.41	1.37628
2250.61	1.37583
2231.81	1.37541
2213	1.37503
2194.2	1.37462
2175.39	1.37417
2156.59	1.37366
2137.79	1.37313
2118.98	1.37274
2100.18	1.37219
2081.38	1.37169
2062.57	1.37127
2043.77	1.37132
2024.97	1.37042
2006.16	1.36941
1987.36	1.36877
1968.56	1.36795
1949.75	1.36789
1930.95	1.36828
1912.15	1.36756
1893.34	1.36647
1874.54	1.36554
1855.74	1.36457
1836.93	1.36343
1818.13	1.36215
1799.33	1.36098
1780.52	1.36009
1761.72	1.35919
1742.92	1.35811
1724.11	1.35693
1705.31	1.3557
1686.51	1.35411
1667.7	1.35242
1648.9	1.35074
1630.09	1.34904
1611.29	1.34743
1592.49	1.34625
1573.68	1.34438
1554.88	1.34168
1536.08	1.33876
1517.27	1.33557
1498.47	1.33158
1479.67	1.32734
1460.86	1.32061
1442.06	1.31894
1423.26	1.30844
1404.45	1.31768
1385.65	1.31566
1366.85	1.3038
1348.04	1.29189
1329.24	1.27689
1310.44	1.25455
1291.63	1.21458
1272.83	1.08292
1254.03	1.549
1235.22	1.36349
1216.42	1.30299
1197.62	1.26039
1178.81	1.21577
1160.01	1.16301
1141.21	1.08924
1122.4	0.982689
1103.6	1.03358
1084.8	1.31721
1065.99	1.37652
1047.19	1.38753
1028.38	1.51887
1009.58	1.87775
990.778	1.71648
971.975	1.60121
953.171	1.53189
934.368	1.4777
915.564	1.42812
896.761	1.37428
877.957	1.32639
859.154	1.33184
840.35	1.23581
821.547	1.06366
802.744	1.51989
783.94	2.02349
765.137	1.75112
746.333	1.65593
727.53	1.59678
708.726	1.54713
689.923	1.56617
671.119	1.57028
652.316	1.57323
633.513	1.54535
614.709	1.5328
595.906	1.52283
577.102	1.51444
558.299	1.50711
539.495	1.50109
520.692	1.49662
501.889	1.49652
483.085	1.49928
464.282	1.49314
445.478	1.487
426.675	1.48359
407.871	1.48629
