Infrared Spectrum: Silicone oil
Formula: [ - Si ( C H 3 )2 O -] n
CAS: 63148-62-9
State: liquid
Instrument: Bruker Tensor 27 FTIR
Resolution: 0.4821395
Origin: Pacific Northwest National Laboratory Under IARPA Contract
1/cm	absorption index
7797.62	1.52002e-05
7778.82	1.52002e-05
7760.02	1.50998e-05
7741.21	1.50003e-05
7722.41	1.43004e-05
7703.61	1.33997e-05
7684.8	1.25e-05
7666	1.18e-05
7647.2	1.19004e-05
7628.39	1.19004e-05
7609.59	1.16002e-05
7590.79	1.07004e-05
7571.98	9.93958e-06
7553.18	9.64023e-06
7534.38	9.5699e-06
7515.57	9.67969e-06
7496.77	9.88984e-06
7477.97	1.04997e-05
7459.16	1.02998e-05
7440.36	1.02003e-05
7421.55	1.04002e-05
7402.75	1.06001e-05
7383.95	1.11996e-05
7365.14	1.25e-05
7346.34	1.38003e-05
7327.54	1.52002e-05
7308.73	1.76996e-05
7289.93	1.79998e-05
7271.13	1.72004e-05
7252.32	1.76996e-05
7233.52	1.74003e-05
7214.72	1.76996e-05
7195.91	1.93002e-05
7177.11	2.20004e-05
7158.31	2.37999e-05
7139.5	2.44004e-05
7120.7	2.55e-05
7101.9	2.34002e-05
7083.09	2.15003e-05
7064.29	1.88001e-05
7045.49	1.69002e-05
7026.68	1.67999e-05
7007.88	1.67999e-05
6989.08	1.59996e-05
6970.27	1.55999e-05
6951.47	1.52997e-05
6932.67	1.47996e-05
6913.86	1.43004e-05
6895.06	1.38998e-05
6876.25	1.40997e-05
6857.45	1.43004e-05
6838.65	1.47001e-05
6819.84	1.43999e-05
6801.04	1.40997e-05
6782.24	1.40002e-05
6763.43	1.37e-05
6744.63	1.35996e-05
6725.83	1.35996e-05
6707.02	1.35001e-05
6688.22	1.33997e-05
6669.42	1.37e-05
6650.61	1.45002e-05
6631.81	1.47001e-05
6613.01	1.55999e-05
6594.2	1.59001e-05
6575.4	1.60999e-05
6556.6	1.62998e-05
6537.79	1.62003e-05
6518.99	1.60999e-05
6500.19	1.59996e-05
6481.38	1.59001e-05
6462.58	1.55004e-05
6443.78	1.52002e-05
6424.97	1.45997e-05
6406.17	1.38003e-05
6387.37	1.3e-05
6368.56	1.21003e-05
6349.76	1.14003e-05
6330.96	1.09003e-05
6312.15	1.04997e-05
6293.35	1.02003e-05
6274.54	1.01e-05
6255.74	9.99963e-06
6236.94	9.96017e-06
6218.13	9.96017e-06
6199.33	1.01e-05
6180.53	1.02998e-05
6161.72	1.06001e-05
6142.92	1.09998e-05
6124.12	1.16002e-05
6105.31	1.25e-05
6086.51	1.38003e-05
6067.71	1.52997e-05
6048.9	1.59001e-05
6030.1	1.59996e-05
6011.3	1.59996e-05
5992.49	1.64001e-05
5973.69	1.84999e-05
5954.89	2.51003e-05
5936.08	4.87999e-05
5917.28	0.000106
5898.48	6.84998e-05
5879.67	9.77996e-05
5860.87	8.09997e-05
5842.07	3.57003e-05
5823.26	2.80998e-05
5804.46	3.14999e-05
5785.66	4.65997e-05
5766.85	7.30999e-05
5748.05	9.37999e-05
5729.25	0.00011
5710.44	9.44998e-05
5691.64	5.69999e-05
5672.83	3.66996e-05
5654.03	2.92003e-05
5635.23	2.87003e-05
5616.42	3.68e-05
5597.62	4.02996e-05
5578.82	2.56003e-05
5560.01	1.78e-05
5541.21	1.47996e-05
5522.41	1.33997e-05
5503.6	1.31999e-05
5484.8	1.47001e-05
5466	2.03003e-05
5447.19	3.30001e-05
5428.39	2.44999e-05
5409.59	3.08e-05
5390.78	2.87003e-05
5371.98	1.64001e-05
5353.18	1.23996e-05
5334.37	1.09003e-05
5315.57	1.06001e-05
5296.77	1.09003e-05
5277.96	1.14998e-05
5259.16	1.21003e-05
5240.36	1.28002e-05
5221.55	1.35001e-05
5202.75	1.37e-05
5183.95	1.43004e-05
5165.14	1.52002e-05
5146.34	1.55004e-05
5127.53	1.50998e-05
5108.73	1.60999e-05
5089.93	1.91998e-05
5071.12	1.88001e-05
5052.32	1.79003e-05
5033.52	1.88001e-05
5014.71	1.79998e-05
4995.91	1.57002e-05
4977.11	1.54e-05
4958.3	1.78e-05
4939.5	1.69002e-05
4920.7	1.59001e-05
4901.89	1.69002e-05
4883.09	1.47001e-05
4864.29	1.38003e-05
4845.48	1.35996e-05
4826.68	1.3e-05
4807.88	1.28002e-05
4789.07	1.3e-05
4770.27	1.35001e-05
4751.47	1.40997e-05
4732.66	1.48999e-05
4713.86	1.59996e-05
4695.06	1.74998e-05
4676.25	1.91003e-05
4657.45	2.22997e-05
4638.65	2.68003e-05
4619.84	3.01996e-05
4601.04	3.47002e-05
4582.24	4.31996e-05
4563.43	5.1e-05
4544.63	5.71998e-05
4525.82	6.98001e-05
4507.02	8.36004e-05
4488.22	9.10002e-05
4469.41	0.000102
4450.61	0.000129
4431.81	0.000151
4413	0.000212
4394.2	0.000278
4375.4	0.000479
4356.59	0.000791
4337.79	0.000354
4318.99	0.000182
4300.18	0.000126
4281.38	0.000104
4262.58	0.000109
4243.77	0.000162
4224.97	0.000383
4206.17	0.000345
4187.36	0.000151
4168.56	0.000226
4149.76	0.000174
4130.95	0.000119
4112.15	0.000112
4093.35	0.000147
4074.54	0.000216
4055.74	0.000279
4036.94	0.000249
4018.13	0.000182
3999.33	0.000163
3980.53	0.000139
3961.72	0.000116
3942.92	0.000104
3924.11	9.94996e-05
3905.31	0.000106
3886.51	0.000114
3867.7	0.000126
3848.9	0.0002
3830.1	0.000288
3811.29	0.000281
3792.49	0.000475
3773.69	0.000778
3754.88	0.000797
3736.08	0.000621
3717.28	0.000844
3698.47	0.000951
3679.67	0.000556
3660.87	0.00051
3642.06	0.000667
3623.26	0.000469
3604.46	0.00045
3585.65	0.000431
3566.85	0.000286
3548.05	0.000197
3529.24	0.000172
3510.44	0.000144
3491.64	0.000124
3472.83	0.000115
3454.03	0.000104
3435.23	8.54e-05
3416.42	8.11001e-05
3397.62	8.98997e-05
3378.81	0.00011
3360.01	0.000149
3341.21	0.000181
3322.4	0.000194
3303.6	0.000208
3284.8	0.000227
3265.99	0.000252
3247.19	0.000291
3228.39	0.000351
3209.58	0.000407
3190.78	0.000473
3171.98	0.000567
3153.17	0.000722
3134.37	0.000975
3115.57	0.00128
3096.76	0.00135
3077.96	0.00141
3059.16	0.00157
3040.35	0.00164
3021.55	0.00184
3002.75	0.00285
2983.94	0.00851
2965.14	0.0667
2946.34	0.0127
2927.53	0.00493
2908.73	0.00863
2889.93	0.00436
2871.12	0.00254
2852.32	0.00207
2833.52	0.00191
2814.71	0.00192
2795.91	0.00191
2777.1	0.0011
2758.3	0.000713
2739.5	0.000589
2720.69	0.000508
2701.89	0.000502
2683.09	0.000545
2664.28	0.000769
2645.48	0.000551
2626.68	0.000391
2607.87	0.000337
2589.07	0.00029
2570.27	0.000294
2551.46	0.000333
2532.66	0.000342
2513.86	0.000402
2495.05	0.000685
2476.25	0.000357
2457.45	0.00031
2438.64	0.000334
2419.84	0.000355
2401.04	0.00032
2382.23	0.000307
2363.43	0.000341
2344.63	0.000354
2325.82	0.000379
2307.02	0.000436
2288.22	0.000459
2269.41	0.000445
2250.61	0.000462
2231.81	0.000532
2213	0.000577
2194.2	0.000594
2175.39	0.000601
2156.59	0.000611
2137.79	0.000749
2118.98	0.000827
2100.18	0.000876
2081.38	0.00105
2062.57	0.00126
2043.77	0.00118
2024.97	0.00066
2006.16	0.000847
1987.36	0.00105
1968.56	0.00165
1949.75	0.00229
1930.95	0.00165
1912.15	0.00106
1893.34	0.000795
1874.54	0.000682
1855.74	0.000551
1836.93	0.000428
1818.13	0.000527
1799.33	0.000867
1780.52	0.00119
1761.72	0.00124
1742.92	0.00118
1724.11	0.00125
1705.31	0.00108
1686.51	0.000993
1667.7	0.00113
1648.9	0.00141
1630.09	0.00167
1611.29	0.00216
1592.49	0.0022
1573.68	0.00142
1554.88	0.00102
1536.08	0.000882
1517.27	0.000679
1498.47	0.000549
1479.67	0.00122
1460.86	0.00189
1442.06	0.00698
1423.26	0.0089
1404.45	0.0163
1385.65	0.00468
1366.85	0.00228
1348.04	0.0018
1329.24	0.00165
1310.44	0.0032
1291.63	0.00996
1272.83	0.0629
1254.03	0.201
1235.22	0.0183
1216.42	0.00847
1197.62	0.0083
1178.81	0.0154
1160.01	0.0326
1141.21	0.0712
1122.4	0.188
1103.6	0.477
1084.8	0.504
1065.99	0.415
1047.19	0.442
1028.38	0.552
1009.58	0.34
990.778	0.0696
971.975	0.0244
953.171	0.0105
934.368	0.00656
915.564	0.00984
896.761	0.024
877.957	0.0795
859.154	0.1
840.35	0.126
821.547	0.447
802.744	0.913
783.94	0.214
765.137	0.0342
746.333	0.02
727.53	0.0126
708.726	0.0454
689.923	0.0532
671.119	0.0373
652.316	0.00601
633.513	0.00278
614.709	0.00262
595.906	0.00168
577.102	0.00131
558.299	0.00188
539.495	0.00346
520.692	0.00608
501.889	0.00953
483.085	0.00466
464.282	0.000349
445.478	0.000295
426.675	0.00585
407.871	0.00585
