Infrared Spectrum: Silicone oil
Formula: [ - Si ( C H 3 )2 O -] n
CAS: 63148-62-9
State: liquid
Instrument: Bruker Tensor 27 FTIR
Resolution: 0.4821395
Origin: Pacific Northwest National Laboratory Under IARPA Contract
1/cm	dispersion index
7797.62	1.3907
7779.06	1.39071
7760.5	1.3907
7741.94	1.39069
7723.38	1.39068
7704.81	1.39066
7686.25	1.39065
7667.69	1.39064
7649.13	1.39062
7630.57	1.39061
7612.01	1.39059
7593.44	1.39058
7574.88	1.39056
7556.32	1.39054
7537.76	1.39053
7519.2	1.39052
7500.64	1.3905
7482.07	1.39049
7463.51	1.39047
7444.95	1.39046
7426.39	1.39045
7407.83	1.39043
7389.26	1.39041
7370.7	1.39039
7352.14	1.39038
7333.58	1.39036
7315.02	1.39034
7296.46	1.39032
7277.89	1.3903
7259.33	1.39028
7240.77	1.39026
7222.21	1.39024
7203.65	1.39022
7185.09	1.3902
7166.52	1.39017
7147.96	1.39015
7129.4	1.39013
7110.84	1.39011
7092.28	1.39009
7073.71	1.39006
7055.15	1.39004
7036.59	1.39001
7018.03	1.38998
6999.47	1.38995
6980.91	1.38993
6962.34	1.3899
6943.78	1.38986
6925.22	1.38983
6906.66	1.3898
6888.1	1.38976
6869.54	1.3897
6850.97	1.38974
6832.41	1.38974
6813.85	1.38969
6795.29	1.38962
6776.73	1.38959
6758.16	1.38962
6739.6	1.38961
6721.04	1.38955
6702.48	1.38951
6683.92	1.38948
6665.36	1.38943
6646.79	1.38938
6628.23	1.38934
6609.67	1.38931
6591.11	1.38928
6572.55	1.38923
6553.99	1.38918
6535.42	1.38913
6516.86	1.38908
6498.3	1.38904
6479.74	1.38899
6461.18	1.38894
6442.61	1.38889
6424.05	1.38884
6405.49	1.38878
6386.93	1.38873
6368.37	1.38867
6349.81	1.38861
6331.24	1.38855
6312.68	1.38849
6294.12	1.38842
6275.56	1.38835
6257	1.38827
6238.44	1.38819
6219.87	1.38811
6201.31	1.38803
6182.75	1.38794
6164.19	1.38784
6145.63	1.38775
6127.06	1.38763
6108.5	1.38749
6089.94	1.38733
6071.38	1.38793
6052.82	1.38766
6034.26	1.38742
6015.69	1.38716
5997.13	1.38742
5978.57	1.38724
5960.01	1.38708
5941.45	1.38687
5922.89	1.38686
5904.32	1.38678
5885.76	1.38664
5867.2	1.38645
5848.64	1.38624
5830.08	1.38599
5811.51	1.38581
5792.95	1.38546
5774.39	1.3858
5755.83	1.38565
5737.27	1.38588
5718.71	1.3857
5700.14	1.38552
5681.58	1.38543
5663.02	1.38509
5644.46	1.38479
5625.9	1.38449
5607.34	1.38415
5588.77	1.38377
5570.21	1.38341
5551.65	1.38302
5533.09	1.38256
5514.53	1.38201
5495.96	1.38139
5477.4	1.38058
5458.84	1.37974
5440.28	1.37881
5421.72	1.37689
5403.16	1.37138
5384.59	1.34573
5366.03	1.39795
5347.47	1.39361
5328.91	1.38913
5310.35	1.38712
5291.79	1.38681
5273.22	1.38538
5254.66	1.38429
5236.1	1.38339
5217.54	1.38306
5198.98	1.38228
5180.41	1.38152
5161.85	1.38084
5143.29	1.38057
5124.73	1.37976
5106.17	1.37911
5087.61	1.37838
5069.04	1.37766
5050.48	1.37693
5031.92	1.3762
5013.36	1.37535
4994.8	1.37456
4976.24	1.37361
4957.67	1.3727
4939.11	1.37167
4920.55	1.37131
4901.99	1.36941
4883.43	1.36796
4864.86	1.36832
4846.3	1.36654
4827.74	1.36468
4809.18	1.36231
4790.62	1.36022
4772.06	1.35832
4753.49	1.35599
4734.93	1.3528
4716.37	1.3495
4697.81	1.34659
4679.25	1.34252
4660.69	1.3367
4642.12	1.32867
4623.56	1.31739
4605	1.31403
4586.44	1.30864
4567.88	1.28457
4549.31	1.23763
4530.75	1.07609
4512.19	1.33057
4493.63	1.24165
4475.07	1.13617
4456.51	0.957722
4437.94	1.35863
4419.38	1.40838
4400.82	1.8464
4382.26	1.57902
4363.7	1.46491
4345.14	1.3601
4326.57	1.31753
4308.01	1.12041
4289.45	1.96676
4270.89	1.64692
4252.33	1.55055
4233.76	1.56949
4215.2	1.5445
4196.64	1.5226
4178.08	1.50711
4159.52	1.4967
4140.96	1.49946
4122.39	1.48751
4103.83	1.4858
4085.27	3.45992e-05
4066.71	3.3461e-05
4048.15	2.98197e-05
4029.58	2.68598e-05
4011.02	2.70882e-05
3992.46	2.41283e-05
3973.9	2.18752e-05
3955.34	2.24668e-05
3936.78	2.38998e-05
3918.21	2.32184e-05
3899.65	2.43567e-05
3881.09	2.86814e-05
3862.53	3.50542e-05
3843.97	4.05171e-05
3825.41	4.02887e-05
3806.84	4.02887e-05
3788.28	5.00782e-05
3769.72	5.55411e-05
3751.16	5.34911e-05
3732.6	4.32486e-05
3714.03	3.82405e-05
3695.47	3.66473e-05
3676.91	3.50542e-05
3658.35	3.25511e-05
3639.79	3.20942e-05
3621.23	3.32325e-05
3602.66	3.23227e-05
3584.1	3.11844e-05
3565.54	3.0956e-05
3546.98	3.02746e-05
3528.42	3.23227e-05
3509.86	3.48257e-05
3491.29	3.64189e-05
3472.73	3.68758e-05
3454.17	3.64189e-05
3435.61	3.57375e-05
3417.05	3.39159e-05
3398.48	3.05011e-05
3379.92	2.66313e-05
3361.36	2.43567e-05
3342.8	2.32184e-05
3324.24	2.27616e-05
3305.68	2.27616e-05
3287.11	2.36734e-05
3268.55	2.52666e-05
3249.99	2.91363e-05
3231.43	3.52826e-05
3212.87	3.64189e-05
3194.31	3.77856e-05
3175.74	6.1459e-05
3157.18	0.000243557
3138.62	0.00023673
3120.06	7.83027e-05
3101.5	7.26113e-05
3082.93	0.00016776
3064.37	0.000250387
3045.81	0.000131339
3027.25	6.69219e-05
3008.69	8.1944e-05
2990.13	6.12305e-05
2971.56	3.43708e-05
2953	3.00461e-05
2934.44	4.23387e-05
2915.88	5.91824e-05
2897.32	7.4433e-05
2878.76	2.95912e-05
2860.19	2.41283e-05
2841.63	2.59499e-05
2823.07	2.84529e-05
2804.51	3.0956e-05
2785.95	3.36874e-05
2767.38	3.45992e-05
2748.82	4.05171e-05
2730.26	4.0972e-05
2711.7	4.25652e-05
2693.14	3.43708e-05
2674.58	4.16554e-05
2656.01	3.75572e-05
2637.45	3.20942e-05
2618.89	3.05011e-05
2600.33	2.91363e-05
2581.77	3.11844e-05
2563.21	3.45992e-05
2544.64	4.07455e-05
2526.08	5.34911e-05
2507.52	7.05632e-05
2488.96	0.000102431
2470.4	0.000133844
2451.83	0.000193708
2433.27	0.000239006
2414.71	0.000350542
2396.15	0.000646454
2377.59	0.00178685
2359.03	0.000409724
2340.46	0.00023673
2321.9	0.000364199
2303.34	0.000839933
2284.78	0.000491668
2266.22	0.000277702
2247.66	0.00032095
2229.09	0.000621414
2210.53	0.000430209
2191.97	0.000327778
2173.41	0.000241281
2154.85	0.000234453
2136.28	0.000270872
2117.72	0.000625967
2099.16	0.00086042
2080.6	0.0018779
2062.04	0.00175271
2043.48	0.00162296
2024.91	0.00142948
2006.35	0.00100382
1987.79	0.000812618
1969.23	0.000414277
1950.67	0.00030274
1932.11	0.000252664
1913.54	0.000186197
1894.98	0.000218064
1876.42	0.000371027
1857.86	0.000450696
1839.3	0.00053264
1820.73	0.000694253
1802.17	0.000967402
1783.61	0.00136347
1765.05	0.00236729
1746.49	0.00307293
1727.93	0.00359646
1709.36	0.00432486
1690.8	0.0232177
1672.24	0.0254939
1653.68	0.0205317
1635.12	0.00571337
1616.56	0.00434762
1597.99	0.00434762
1579.43	0.00164572
1560.87	0.00116316
1542.31	0.00120413
1523.75	0.00134753
1505.18	0.000783027
1486.62	0.000655558
1468.06	0.000776199
1449.5	0.00185741
1430.94	0.00071474
1412.38	0.000810342
1393.81	0.000691977
1375.25	0.000801237
1356.69	0.000946917
1338.13	0.00103114
1319.57	0.00113812
1301.01	0.00133615
1282.44	0.00137257
1263.88	0.00184831
1245.32	0.00216015
1226.76	0.00314121
1208.2	0.00152964
1189.63	0.00270873
1171.07	0.00544022
1152.51	0.00199854
1133.95	0.00146135
1115.39	0.000971955
1096.83	0.00222844
1078.26	0.00279978
1059.7	0.00279978
1041.14	0.002299
1022.58	0.00332331
1004.02	0.00505326
985.455	0.00305016
966.894	0.00200309
948.332	0.0012838
929.77	0.00480287
911.208	0.0213056
892.647	0.0106528
874.085	0.00407447
855.523	0.00694254
836.961	0.112674
818.399	0.0478011
799.838	0.0183693
781.276	0.0662387
762.714	0.350541
744.152	1.20186
725.591	0.969679
707.029	1.08804
688.467	0.071474
669.905	0.0158199
651.344	0.039379
632.782	0.241282
614.22	0.50305
595.658	1.29291
577.096	0.0682873
558.535	0.0391514
539.973	0.103114
521.411	0.00864972
502.849	0.00468906
484.288	0.00325503
465.726	0.00987889
447.164	0.0213284
428.602	0.000359646
410.041	0.0131112
